/*---------------------------------------------------------------------------*\
  =========                 |
  \\      /  F ield         | OpenFOAM: The Open Source CFD Toolbox
   \\    /   O peration     | Website:  https://openfoam.org
    \\  /    A nd           | Version:  7
     \\/     M anipulation  |
\*---------------------------------------------------------------------------*/
Build  : 7
Exec   : charBedFilteredFoam
Date   : Mar 11 2022
Time   : 11:21:37
Host   : "dhcp-063148"
PID    : 32781
I/O    : uncollated
Case   : /home/jingyuaz/Github/charBedFilteredFoam/case/listTest
nProcs : 1
sigFpe : Enabling floating point exception trapping (FOAM_SIGFPE).
fileModificationChecking : Monitoring run-time modified files using timeStampMaster (fileModificationSkew 10)
allowSystemOperations : Allowing user-supplied system call operations

// * * * * * * * * * * * * * * * * * * * * * * * * * * * * * * * * * * * * * //
Create time

Create mesh for time = 2


PIMPLE: No convergence criteria found


PIMPLE: Operating solver in transient mode with 1 outer corrector
PIMPLE: Operating solver in PISO mode



Reading g
Reading thermophysical properties

Selecting thermodynamics package 
{
    type            hePsiThermo;
    mixture         reactingMixture;
    transport       sutherland;
    thermo          janaf;
    energy          sensibleEnthalpy;
    equationOfState perfectGas;
    specie          specie;
}

Selecting chemistryReader foamChemistryReader
Creating component thermo properties:
    multi-component carrier - 3 species
    no liquid components
    no solid components

Reading field Uc

Reading/calculating face flux field phic

Creating field dpdt

Creating field kinetic energy Kc

No MRF models present

Create source diffusion mesh for time = 0


SIMPLE: No convergence criteria found

*** Diffusion band width for phase set to 0.018
*** Diffusion band width For Mass Coupling set to 0.018
*** Diffusion band width For Momentum Coupling set to 0.018
*** Diffusion band width For Heat Coupling set to 0.018
*** Diffusion band width For Radia Coupling set to 0.018
*** Diffusion steps set to 6
Create gas diffusion mesh for time = 0


SIMPLE: No convergence criteria found

Diffusion band width set to 0.018
Construct caose grid

Constructing steelCloud 
Constructing particle forces
    Selecting particle force ErgunWenYuDrag
    Selecting particle force gravity
Constructing cloud functions
    none
Constructing particle injection models
Creating injector: model1
Selecting injection model manualInjection
    Constructing 3-D injection
    Choosing nParticle to be a fixed value, massTotal variable now does not determine anything.
Selecting distribution model fixedValue
Selecting dispersion model none
Selecting patch interaction model localInteraction
    Interaction fields will not be written
Selecting stochastic collision model none
Selecting surface film model none
Selecting U integration scheme Euler
Selecting collision model pairCollisionHeat
Selecting pair model pairSpringSliderDashpotHeat
Selecting wall model wallSpringSliderDashpot
Building InteractionLists with interaction distance 0.012
    Building referred interaction lists
    Building direct interaction lists
Selecting heat transfer model fixedValue2
Selecting T integration scheme analytical
Creating turbulence model

Selecting turbulence model type laminar
Selecting laminar stress model Stokes
Selecting radiationModel none
No finite volume options present
Courant Number mean: 0.7050112188 max: 0.7837177223

Starting time loop


DEMFlag
1


list

7
(
0()
0()
0()
0()

396
(
343
346
349
397
400
403
451
454
457
1315
1318
1321
1369
1372
1375
1423
1426
1429
2287
2290
2293
2341
2344
2347
2395
2398
2401
3259
3262
3265
3313
3316
3319
3367
3370
3373
4231
4234
4237
4285
4288
4291
4339
4342
4345
5203
5206
5209
5257
5260
5263
5311
5314
5317
6175
6178
6181
6229
6232
6235
6283
6286
6289
7147
7150
7153
7201
7204
7207
7255
7258
7261
8119
8122
8125
8173
8176
8179
8227
8230
8233
9091
9094
9097
9145
9148
9151
9199
9202
9205
10063
10066
10069
10117
10120
10123
10171
10174
10177
352
355
358
406
409
412
460
463
466
1324
1327
1330
1378
1381
1384
1432
1435
1438
2296
2299
2302
2350
2353
2356
2404
2407
2410
3268
3271
3274
3322
3325
3328
3376
3379
3382
4240
4243
4246
4294
4297
4300
4348
4351
4354
5212
5215
5218
5266
5269
5272
5320
5323
5326
6184
6187
6190
6238
6241
6244
6292
6295
6298
7156
7159
7162
7210
7213
7216
7264
7267
7270
8128
8131
8134
8182
8185
8188
8236
8239
8242
9100
9103
9106
9154
9157
9160
9208
9211
9214
10072
10075
10078
10126
10129
10132
10180
10183
10186
505
508
511
559
562
565
613
616
619
1477
1480
1483
1531
1534
1537
1585
1588
1591
2449
2452
2455
2503
2506
2509
2557
2560
2563
3421
3424
3427
3475
3478
3481
3529
3532
3535
4393
4396
4399
4447
4450
4453
4501
4504
4507
5365
5368
5371
5419
5422
5425
5473
5476
5479
6337
6340
6343
6391
6394
6397
6445
6448
6451
7309
7312
7315
7363
7366
7369
7417
7420
7423
8281
8284
8287
8335
8338
8341
8389
8392
8395
9253
9256
9259
9307
9310
9313
9361
9364
9367
10225
10228
10231
10279
10282
10285
10333
10336
10339
514
517
520
568
571
574
622
625
628
1486
1489
1492
1540
1543
1546
1594
1597
1600
2458
2461
2464
2512
2515
2518
2566
2569
2572
3430
3433
3436
3484
3487
3490
3538
3541
3544
4402
4405
4408
4456
4459
4462
4510
4513
4516
5374
5377
5380
5428
5431
5434
5482
5485
5488
6346
6349
6352
6400
6403
6406
6454
6457
6460
7318
7321
7324
7372
7375
7378
7426
7429
7432
8290
8293
8296
8344
8347
8350
8398
8401
8404
9262
9265
9268
9316
9319
9322
9370
9373
9376
10234
10237
10240
10288
10291
10294
10342
10345
10348
)

0()
0()
)


Courant Number mean: 0.7050112188 max: 0.7837177223
Time = 2.001

diffusionRunTime_.timeIndex(): 
0
diffusionRunTime_.timeIndex(): 
1
DICPCG:  Solving for tempDiffScalar, Initial residual = 0.7244120567, Final residual = 9.124521329e-11, No Iterations 11
diffusionRunTime_.timeIndex(): 
2
DICPCG:  Solving for tempDiffScalar, Initial residual = 0.6498930297, Final residual = 1.79218499e-11, No Iterations 12
diffusionRunTime_.timeIndex(): 
3
DICPCG:  Solving for tempDiffScalar, Initial residual = 0.5452865106, Final residual = 1.656795529e-11, No Iterations 12
diffusionRunTime_.timeIndex(): 
4
DICPCG:  Solving for tempDiffScalar, Initial residual = 0.5600921496, Final residual = 9.98486377e-11, No Iterations 11
diffusionRunTime_.timeIndex(): 
5
DICPCG:  Solving for tempDiffScalar, Initial residual = 0.5632119519, Final residual = 9.281484316e-11, No Iterations 11
diffusionRunTime_.timeIndex(): 
6
DICPCG:  Solving for tempDiffScalar, Initial residual = 0.5628830093, Final residual = 8.964804428e-11, No Iterations 11

Solving 3-D cloud steelCloud
KinematicCloud<CloudType>::evolveCloud called here
    51 move-collide subCycles
Cloud: steelCloud
    Current number of parcels       = 396
    Current mass in system          = 2.798263323
    Linear momentum                 = (2.473526647e-06 -4.848342699e-08 -7.474911778e-05)
   |Linear momentum|                = 7.479004809e-05
    Linear kinetic energy           = 1.036923822e-09
    model1:
        number of parcels added     = 396
        mass introduced             = 2.798263323
    Parcel fate (number, mass)      : patch walls
      - escape                      = 0, 0
      - stick                       = 0, 0
    Parcel fate (number, mass)      : patch outlet
      - escape                      = 0, 0
      - stick                       = 0, 0
    Parcel fate (number, mass)      : patch inlet
      - escape                      = 0, 0
      - stick                       = 0, 0
    Rotational kinetic energy       = 1.709509289e-05
    Temperature min/max             = 337.0546681, 337.9296376

diagonal:  Solving for tempExplicitDiffScalar, Initial residual = 0, Final residual = 0, No Iterations 0
diagonal:  Solving for tempExplicitDiffScalar, Initial residual = 0, Final residual = 0, No Iterations 0
diagonal:  Solving for tempExplicitDiffScalar, Initial residual = 0, Final residual = 0, No Iterations 0
diagonal:  Solving for tempExplicitDiffScalar, Initial residual = 0, Final residual = 0, No Iterations 0
diagonal:  Solving for tempExplicitDiffScalar, Initial residual = 0, Final residual = 0, No Iterations 0
diagonal:  Solving for tempExplicitDiffScalar, Initial residual = 0, Final residual = 0, No Iterations 0
diagonal:  Solving for tempExplicitDiffScalar, Initial residual = 0, Final residual = 0, No Iterations 0
diagonal:  Solving for tempExplicitDiffScalar, Initial residual = 0, Final residual = 0, No Iterations 0
diagonal:  Solving for tempExplicitDiffScalar, Initial residual = 0, Final residual = 0, No Iterations 0
diagonal:  Solving for tempExplicitDiffScalar, Initial residual = 0, Final residual = 0, No Iterations 0
diagonal:  Solving for tempExplicitDiffScalar, Initial residual = 0, Final residual = 0, No Iterations 0
diagonal:  Solving for tempExplicitDiffScalar, Initial residual = 0, Final residual = 0, No Iterations 0
diagonal:  Solving for tempExplicitDiffScalar, Initial residual = 0, Final residual = 0, No Iterations 0
diagonal:  Solving for tempExplicitDiffScalar, Initial residual = 0, Final residual = 0, No Iterations 0
diagonal:  Solving for tempExplicitDiffScalar, Initial residual = 0, Final residual = 0, No Iterations 0
diagonal:  Solving for tempExplicitDiffScalar, Initial residual = 0, Final residual = 0, No Iterations 0
diagonal:  Solving for tempExplicitDiffScalar, Initial residual = 0, Final residual = 0, No Iterations 0
diagonal:  Solving for tempExplicitDiffScalar, Initial residual = 0, Final residual = 0, No Iterations 0
diagonal:  Solving for tempExplicitDiffScalar, Initial residual = 0, Final residual = 0, No Iterations 0
diagonal:  Solving for tempExplicitDiffScalar, Initial residual = 0, Final residual = 0, No Iterations 0
diagonal:  Solving for tempExplicitDiffScalar, Initial residual = 0, Final residual = 0, No Iterations 0
diagonal:  Solving for tempExplicitDiffScalar, Initial residual = 0, Final residual = 0, No Iterations 0
DICPCG:  Solving for tempDiffVectorx, Initial residual = 0.7244120567, Final residual = 8.829614542e-11, No Iterations 11
DICPCG:  Solving for tempDiffVectory, Initial residual = 0.8350511811, Final residual = 3.447479656e-11, No Iterations 12
DICPCG:  Solving for tempDiffVectorz, Initial residual = 0.7931301583, Final residual = 3.870842526e-11, No Iterations 12
DICPCG:  Solving for tempDiffVectorx, Initial residual = 0.6498930297, Final residual = 1.654992632e-11, No Iterations 12
DICPCG:  Solving for tempDiffVectory, Initial residual = 0.7839182921, Final residual = 6.171530014e-11, No Iterations 12
DICPCG:  Solving for tempDiffVectorz, Initial residual = 0.6302482051, Final residual = 5.573995188e-11, No Iterations 12
DICPCG:  Solving for tempDiffVectorx, Initial residual = 0.5452865106, Final residual = 9.900253941e-11, No Iterations 11
DICPCG:  Solving for tempDiffVectory, Initial residual = 0.2088256847, Final residual = 2.884189184e-11, No Iterations 12
DICPCG:  Solving for tempDiffVectorz, Initial residual = 0.1966448021, Final residual = 3.704354566e-11, No Iterations 12
DICPCG:  Solving for tempDiffVectorx, Initial residual = 0.5419230371, Final residual = 9.143257303e-11, No Iterations 11
DICPCG:  Solving for tempDiffVectory, Initial residual = 0.08647845396, Final residual = 9.059008128e-11, No Iterations 11
DICPCG:  Solving for tempDiffVectorz, Initial residual = 0.1032412863, Final residual = 2.364178264e-11, No Iterations 12
DICPCG:  Solving for tempDiffVectorx, Initial residual = 0.4033030549, Final residual = 9.99721677e-11, No Iterations 11
DICPCG:  Solving for tempDiffVectory, Initial residual = 0.05166311984, Final residual = 5.27846155e-11, No Iterations 11
DICPCG:  Solving for tempDiffVectorz, Initial residual = 0.07817995294, Final residual = 8.53602903e-11, No Iterations 11
DICPCG:  Solving for tempDiffVectorx, Initial residual = 0.165808706, Final residual = 8.487728729e-11, No Iterations 11
DICPCG:  Solving for tempDiffVectory, Initial residual = 0.03816440078, Final residual = 2.855340109e-11, No Iterations 11
DICPCG:  Solving for tempDiffVectorz, Initial residual = 0.06489966131, Final residual = 5.932104747e-11, No Iterations 11
DICPCG:  Solving for tempDiffScalar, Initial residual = 0.7244120567, Final residual = 8.993766648e-11, No Iterations 11
DICPCG:  Solving for tempDiffScalar, Initial residual = 0.6498930297, Final residual = 1.728548518e-11, No Iterations 12
DICPCG:  Solving for tempDiffScalar, Initial residual = 0.5452865106, Final residual = 1.533634438e-11, No Iterations 12
DICPCG:  Solving for tempDiffScalar, Initial residual = 0.5600921496, Final residual = 9.077676579e-11, No Iterations 11
DICPCG:  Solving for tempDiffScalar, Initial residual = 0.5283812565, Final residual = 8.809767903e-11, No Iterations 11
DICPCG:  Solving for tempDiffScalar, Initial residual = 0.3444944813, Final residual = 1.784768345e-11, No Iterations 12
DICPCG:  Solving for tempDiffScalar, Initial residual = 0.7244120567, Final residual = 1.960782756e-11, No Iterations 12
DICPCG:  Solving for tempDiffScalar, Initial residual = 0.5948557713, Final residual = 2.516237756e-11, No Iterations 12
DICPCG:  Solving for tempDiffScalar, Initial residual = 0.2686158467, Final residual = 9.105410473e-11, No Iterations 11
DICPCG:  Solving for tempDiffScalar, Initial residual = 0.09030025545, Final residual = 4.315053448e-11, No Iterations 11
DICPCG:  Solving for tempDiffScalar, Initial residual = 0.02693507653, Final residual = 2.197861181e-11, No Iterations 11
DICPCG:  Solving for tempDiffScalar, Initial residual = 0.009566853619, Final residual = 7.697713883e-11, No Iterations 10
DICPCG:  Solving for tempDiffScalar, Initial residual = 0.7244120567, Final residual = 9.101365075e-11, No Iterations 11
DICPCG:  Solving for tempDiffScalar, Initial residual = 0.6498930297, Final residual = 1.783056753e-11, No Iterations 12
DICPCG:  Solving for tempDiffScalar, Initial residual = 0.5452865106, Final residual = 1.638783908e-11, No Iterations 12
DICPCG:  Solving for tempDiffScalar, Initial residual = 0.5600921496, Final residual = 9.737694943e-11, No Iterations 11
DICPCG:  Solving for tempDiffScalar, Initial residual = 0.5487407812, Final residual = 8.373374379e-11, No Iterations 11
DICPCG:  Solving for tempDiffScalar, Initial residual = 0.4413237442, Final residual = 6.657718269e-11, No Iterations 11
diagonal:  Solving for rho, Initial residual = 0, Final residual = 0, No Iterations 0
smoothSolver:  Solving for Ux, Initial residual = 1.229605709e-05, Final residual = 6.523653755e-09, No Iterations 1
smoothSolver:  Solving for Uy, Initial residual = 0.00016897941, Final residual = 8.25825078e-08, No Iterations 1
smoothSolver:  Solving for Uz, Initial residual = 5.40528002e-05, Final residual = 2.541019235e-08, No Iterations 1
smoothSolver:  Solving for h, Initial residual = 9.499575625e-06, Final residual = 2.104867125e-08, No Iterations 1
T gas min/max   = 298, 336.5976434
GAMG:  Solving for p, Initial residual = 1.372533134e-05, Final residual = 5.29917009e-07, No Iterations 1
diagonal:  Solving for rho, Initial residual = 0, Final residual = 0, No Iterations 0
time step continuity errors : sum local = 6.41400671e-17, global = 1.088342179e-18, cumulative = 1.088342179e-18
GAMG:  Solving for p, Initial residual = 1.379048582e-06, Final residual = 1.102309612e-07, No Iterations 1
diagonal:  Solving for rho, Initial residual = 0, Final residual = 0, No Iterations 0
time step continuity errors : sum local = 6.464116346e-17, global = -2.104071736e-19, cumulative = 8.779350055e-19
GAMG:  Solving for p, Initial residual = 2.777563245e-07, Final residual = 2.777563245e-07, No Iterations 0
diagonal:  Solving for rho, Initial residual = 0, Final residual = 0, No Iterations 0
time step continuity errors : sum local = 6.431923736e-17, global = 9.163573071e-19, cumulative = 1.794292313e-18
ExecutionTime = 2.54 s  ClockTime = 2 s

End

